Version 4
SHEET 1 1816 1656
WIRE -448 720 -608 720
WIRE -288 720 -384 720
WIRE -160 720 -288 720
WIRE 208 720 -160 720
WIRE 608 720 208 720
WIRE 816 720 608 720
WIRE 816 736 816 720
WIRE 608 752 608 720
WIRE -288 784 -288 720
WIRE -160 784 -160 720
WIRE -608 800 -608 720
WIRE 608 848 608 816
WIRE 608 848 0 848
WIRE 816 848 816 816
WIRE 816 848 608 848
WIRE 208 880 208 720
WIRE -288 896 -288 848
WIRE -160 896 -160 848
WIRE -608 928 -608 880
WIRE 0 944 0 848
WIRE 48 944 0 944
WIRE 464 944 368 944
WIRE 816 944 816 848
WIRE 48 1024 -160 1024
WIRE 768 1024 368 1024
WIRE 48 1104 0 1104
WIRE 464 1104 464 1008
WIRE 464 1104 368 1104
WIRE 608 1104 464 1104
WIRE 816 1104 816 1040
WIRE 816 1104 608 1104
WIRE 880 1104 816 1104
WIRE 1040 1104 960 1104
WIRE 1184 1104 1040 1104
WIRE 1296 1104 1184 1104
WIRE 1408 1104 1296 1104
WIRE 1664 1104 1408 1104
WIRE -160 1120 -160 1024
WIRE 608 1136 608 1104
WIRE 1040 1136 1040 1104
WIRE 1664 1152 1664 1104
WIRE 1184 1216 1184 1104
WIRE 1296 1216 1296 1104
WIRE 1408 1216 1408 1104
WIRE -160 1248 -160 1184
WIRE 0 1280 0 1104
WIRE 1040 1280 1040 1216
WIRE 1040 1280 0 1280
WIRE 0 1328 0 1280
WIRE 1040 1344 1040 1280
WIRE -160 1456 -160 1328
WIRE 0 1456 0 1392
WIRE 0 1456 -160 1456
WIRE 208 1456 208 1168
WIRE 208 1456 0 1456
WIRE 608 1456 608 1200
WIRE 608 1456 208 1456
WIRE 1040 1456 1040 1424
WIRE 1040 1456 608 1456
WIRE 1184 1456 1184 1280
WIRE 1184 1456 1040 1456
WIRE 1296 1456 1296 1280
WIRE 1296 1456 1184 1456
WIRE 1408 1456 1408 1280
WIRE 1408 1456 1296 1456
WIRE 1552 1456 1408 1456
WIRE 1552 1504 1552 1456
WIRE 1552 1616 1552 1584
FLAG -608 928 0
FLAG -288 896 0
FLAG -160 896 0
FLAG 1552 1456 OUT_12-
FLAG 1664 1152 0
FLAG 1552 1616 0
SYMBOL voltage -608 784 R0
WINDOW 3 24 44 Left 2
WINDOW 123 0 0 Left 2
WINDOW 39 0 0 Left 2
SYMATTR Value 15
SYMATTR InstName V1
SYMBOL PowerProducts\\LTC1624 208 1024 R0
SYMATTR InstName U2
SYMBOL schottky -448 736 R270
WINDOW 0 32 32 VTop 2
WINDOW 3 0 32 VBottom 2
SYMATTR InstName D3
SYMATTR Value RBR2L60A
SYMATTR Description Diode
SYMATTR Type diode
SYMBOL polcap -304 784 R0
SYMATTR InstName C10
SYMATTR Value 150µ
SYMATTR SpiceLine V=35 Irms=585m Rser=0.12 Lser=0 mfg="Panasonic" pn="ECA1VFQ151L" type="Al electrolytic"
SYMBOL polcap -176 784 R0
SYMATTR InstName C11
SYMATTR Value 0.1µ
SYMATTR SpiceLine V=50
SYMBOL polcap 592 752 R0
SYMATTR InstName C12
SYMATTR Value 1000p
SYMATTR SpiceLine V=50
SYMBOL res 800 720 R0
SYMATTR InstName R5
SYMATTR Value 0.1
SYMATTR SpiceLine pwr=0.5
SYMBOL nmos 768 944 R0
SYMATTR InstName M2
SYMATTR Value BSZ097N04LS
SYMBOL polcap 448 944 R0
SYMATTR InstName C13
SYMATTR Value 0.1µ
SYMATTR SpiceLine V=50
SYMBOL ind 864 1120 R270
WINDOW 0 32 56 VTop 2
WINDOW 3 5 56 VBottom 2
SYMATTR InstName L2
SYMATTR Value 47µ
SYMBOL schottky 624 1200 R180
WINDOW 0 24 64 Left 2
WINDOW 3 24 0 Left 2
SYMATTR InstName D4
SYMATTR Value RBR2L60A
SYMATTR Description Diode
SYMATTR Type diode
SYMBOL res 1024 1120 R0
SYMATTR InstName R6
SYMATTR Value 10k
SYMBOL res 1024 1328 R0
SYMATTR InstName R7
SYMATTR Value 1.1k
SYMBOL polcap 1168 1216 R0
SYMATTR InstName C14
SYMATTR Value 150µ
SYMATTR SpiceLine V=35
SYMBOL polcap 1280 1216 R0
SYMATTR InstName C15
SYMATTR Value 150µ
SYMATTR SpiceLine V=35
SYMBOL polcap 1392 1216 R0
SYMATTR InstName C16
SYMATTR Value 0.1µ
SYMATTR SpiceLine V=50V
SYMBOL polcap -16 1328 R0
SYMATTR InstName C17
SYMATTR Value 100p
SYMATTR SpiceLine V=50
SYMBOL polcap -176 1120 R0
SYMATTR InstName C18
SYMATTR Value 330p
SYMATTR SpiceLine V=50
SYMBOL res -176 1232 R0
SYMATTR InstName R8
SYMATTR Value 4.75k
SYMBOL res 1536 1488 R0
SYMATTR InstName Rcharge
SYMATTR Value 20
TEXT -642 1640 Left 2 !.tran 10m
