Version 4
SHEET 1 1816 1516
WIRE -432 -128 -640 -128
WIRE -272 -128 -368 -128
WIRE -144 -128 -272 -128
WIRE 224 -128 -144 -128
WIRE 624 -128 224 -128
WIRE 832 -128 624 -128
WIRE 832 -112 832 -128
WIRE 624 -96 624 -128
WIRE -272 -64 -272 -128
WIRE -144 -64 -144 -128
WIRE -640 -48 -640 -128
WIRE 624 0 624 -32
WIRE 624 0 16 0
WIRE 832 0 832 -32
WIRE 832 0 624 0
WIRE 224 32 224 -128
WIRE -272 48 -272 0
WIRE -144 48 -144 0
WIRE -640 80 -640 32
WIRE 16 96 16 0
WIRE 64 96 16 96
WIRE 480 96 384 96
WIRE 832 96 832 0
WIRE 64 176 -144 176
WIRE 784 176 384 176
WIRE 64 256 16 256
WIRE 480 256 480 160
WIRE 480 256 384 256
WIRE 624 256 480 256
WIRE 832 256 832 192
WIRE 832 256 624 256
WIRE 896 256 832 256
WIRE 1056 256 976 256
WIRE 1200 256 1056 256
WIRE 1312 256 1200 256
WIRE 1424 256 1312 256
WIRE 1504 256 1424 256
WIRE 1696 256 1504 256
WIRE -144 272 -144 176
WIRE 624 288 624 256
WIRE 1056 288 1056 256
WIRE 1696 320 1696 256
WIRE 224 352 224 320
WIRE 1200 368 1200 256
WIRE 1312 368 1312 256
WIRE 1424 368 1424 256
WIRE -144 400 -144 336
WIRE 624 400 624 352
WIRE 16 432 16 256
WIRE 1056 432 1056 368
WIRE 1056 432 16 432
WIRE 1696 432 1696 400
WIRE 16 480 16 432
WIRE 1056 496 1056 432
WIRE 1200 544 1200 432
WIRE 1312 544 1312 432
WIRE 1312 544 1200 544
WIRE 1424 544 1424 432
WIRE 1424 544 1312 544
WIRE -144 592 -144 480
WIRE 16 592 16 544
WIRE 1056 608 1056 576
WIRE 1200 608 1200 544
FLAG -272 48 0
FLAG -144 48 0
FLAG 224 352 0
FLAG 1056 608 0
FLAG 624 400 0
FLAG 1200 608 0
FLAG 1504 256 OUT_12+
FLAG 16 592 0
FLAG -144 592 0
FLAG -640 80 0
FLAG 1696 432 0
SYMBOL PowerProducts\\LTC1624 224 176 R0
SYMATTR InstName U1
SYMBOL schottky -432 -112 R270
WINDOW 0 32 32 VTop 2
WINDOW 3 0 32 VBottom 2
SYMATTR InstName D1
SYMATTR Value RBR2L60A
SYMATTR Description Diode
SYMATTR Type diode
SYMBOL polcap -288 -64 R0
SYMATTR InstName C1
SYMATTR Value 150µ
SYMATTR SpiceLine V=35 Irms=585m Rser=0.12 Lser=0 mfg="Panasonic" pn="ECA1VFQ151L" type="Al electrolytic"
SYMBOL polcap -160 -64 R0
SYMATTR InstName C2
SYMATTR Value 0.1µ
SYMATTR SpiceLine V=50
SYMBOL polcap 608 -96 R0
SYMATTR InstName C3
SYMATTR Value 1n
SYMATTR SpiceLine V=50
SYMBOL res 816 -128 R0
SYMATTR InstName R1
SYMATTR Value 0.1
SYMATTR SpiceLine pwr=0.5
SYMBOL nmos 784 96 R0
SYMATTR InstName M1
SYMATTR Value BSZ097N04LS
SYMBOL polcap 464 96 R0
SYMATTR InstName C4
SYMATTR Value 0.1µ
SYMATTR SpiceLine V=50
SYMBOL ind 880 272 R270
WINDOW 0 32 56 VTop 2
WINDOW 3 5 56 VBottom 2
SYMATTR InstName L1
SYMATTR Value 47µ
SYMBOL schottky 640 352 R180
WINDOW 0 24 64 Left 2
WINDOW 3 24 0 Left 2
SYMATTR InstName D2
SYMATTR Value RBR2L60A
SYMATTR Description Diode
SYMATTR Type diode
SYMBOL res 1040 272 R0
SYMATTR InstName R2
SYMATTR Value 10k
SYMBOL res 1040 480 R0
SYMATTR InstName R3
SYMATTR Value 1.1k
SYMBOL polcap 1184 368 R0
SYMATTR InstName C5
SYMATTR Value 150µ
SYMATTR SpiceLine V=35
SYMBOL polcap 1296 368 R0
SYMATTR InstName C6
SYMATTR Value 150µ
SYMATTR SpiceLine V=35
SYMBOL polcap 1408 368 R0
SYMATTR InstName C7
SYMATTR Value 0.1µ
SYMATTR SpiceLine V=50V
SYMBOL polcap 0 480 R0
SYMATTR InstName C8
SYMATTR Value 100p
SYMATTR SpiceLine V=50
SYMBOL polcap -160 272 R0
SYMATTR InstName C9
SYMATTR Value 330p
SYMATTR SpiceLine V=50
SYMBOL res -160 384 R0
SYMATTR InstName R4
SYMATTR Value 4.75k
SYMBOL voltage -640 -64 R0
WINDOW 3 24 44 Left 2
WINDOW 123 0 0 Left 2
WINDOW 39 0 0 Left 2
SYMATTR Value 15
SYMATTR InstName V1
SYMBOL res 1680 304 R0
SYMATTR InstName Rcharge
SYMATTR Value 20
TEXT -672 632 Left 2 !.tran 10m
